Version 4
SHEET 1 2436 5824
WIRE 96 -224 96 -256
WIRE 96 -96 96 -144
WIRE 160 -16 64 -16
WIRE 320 -16 240 -16
WIRE -272 16 -272 0
WIRE 144 80 144 48
WIRE 320 80 320 -16
WIRE 400 80 320 80
WIRE 608 80 400 80
WIRE -272 96 -400 96
WIRE 688 96 688 80
WIRE -272 112 -272 96
WIRE -96 112 -272 112
WIRE 64 112 64 -16
WIRE 64 112 -16 112
WIRE 112 112 64 112
WIRE 608 112 608 80
WIRE 624 112 608 112
WIRE 320 128 320 80
WIRE 320 128 272 128
WIRE 592 128 528 128
WIRE 112 144 80 144
WIRE 592 144 592 128
WIRE 624 144 592 144
WIRE 48 160 32 160
WIRE 80 160 80 144
WIRE 80 160 48 160
WIRE 832 160 752 160
WIRE 880 160 832 160
WIRE 32 176 32 160
WIRE 80 176 80 160
WIRE 112 176 80 176
WIRE 624 176 592 176
WIRE 880 176 880 160
WIRE 320 192 272 192
WIRE -272 208 -272 192
WIRE -96 208 -272 208
WIRE 64 208 -16 208
WIRE 112 208 64 208
WIRE 592 208 592 176
WIRE 592 208 528 208
WIRE 624 208 608 208
WIRE 320 240 320 192
WIRE 400 240 320 240
WIRE 608 240 608 208
WIRE 608 240 400 240
WIRE 144 256 144 240
WIRE 32 272 32 240
WIRE -400 288 -400 176
WIRE -272 288 -400 288
WIRE 880 288 880 256
WIRE 64 320 64 208
WIRE 160 320 64 320
WIRE 320 320 320 240
WIRE 320 320 240 320
FLAG 32 272 0
FLAG 144 256 0
FLAG 656 224 0
FLAG 48 160 REF
FLAG -272 0 0
FLAG 96 -96 0
FLAG 96 -256 vcc
FLAG 880 288 0
FLAG 832 160 out
FLAG 400 80 out+
FLAG 400 240 out-
FLAG 144 48 vcc
FLAG 656 80 vcc
FLAG 688 80 vcc
FLAG 720 224 0
SYMBOL res 512 112 R0
WINDOW 3 11 57 Left 2
SYMATTR Value 5k
SYMATTR InstName R1
SYMBOL cap 16 176 R0
SYMATTR InstName C1
SYMATTR Value 100n
SYMBOL voltage -400 192 M180
WINDOW 0 24 96 Left 2
WINDOW 3 -113 -3 Left 2
WINDOW 123 0 0 Left 0
WINDOW 39 0 0 Left 0
SYMATTR InstName V1
SYMATTR Value SINE(0 2 50)
SYMBOL res -288 96 R0
SYMATTR InstName R2
SYMATTR Value 1000
SYMBOL res -288 0 R0
SYMATTR InstName R3
SYMATTR Value 1
SYMBOL res -288 192 R0
SYMATTR InstName R4
SYMATTR Value 470k
SYMBOL voltage 96 -240 M0
WINDOW 0 24 96 Left 2
WINDOW 3 43 31 Left 2
WINDOW 123 0 0 Left 0
WINDOW 39 0 0 Left 0
SYMATTR InstName V2
SYMATTR Value 3.7
SYMBOL res 864 160 R0
SYMATTR InstName R5
SYMATTR Value 100k
SYMBOL Opamps\\LTC1992 176 160 R0
SYMATTR InstName U2
SYMBOL res 256 -32 R90
WINDOW 0 0 56 VBottom 2
WINDOW 3 32 56 VTop 2
SYMATTR InstName R6
SYMATTR Value 100k
SYMBOL res 0 96 R90
WINDOW 0 0 56 VBottom 2
WINDOW 3 32 56 VTop 2
SYMATTR InstName R7
SYMATTR Value 100k
SYMBOL res 0 192 R90
WINDOW 0 0 56 VBottom 2
WINDOW 3 32 56 VTop 2
SYMATTR InstName R8
SYMATTR Value 100k
SYMBOL res 256 304 R90
WINDOW 0 0 56 VBottom 2
WINDOW 3 32 56 VTop 2
SYMATTR InstName R9
SYMATTR Value 100k
SYMBOL Opamps\\AD8235 688 160 R0
SYMATTR InstName U1
TEXT -336 432 Left 2 !.tran 100ms
