Version 4
SHEET 1 2436 5824
WIRE 144 -80 16 -80
WIRE 144 -48 144 -80
WIRE 16 80 16 -80
WIRE 144 80 144 32
WIRE 304 80 144 80
WIRE 512 80 304 80
WIRE 592 96 592 80
WIRE 144 112 144 80
WIRE 512 112 512 80
WIRE 528 112 512 112
WIRE 496 128 432 128
WIRE 496 144 496 128
WIRE 528 144 496 144
WIRE -384 160 -384 128
WIRE -176 160 -176 128
WIRE 736 160 656 160
WIRE 784 160 736 160
WIRE 528 176 496 176
WIRE 784 176 784 160
WIRE 496 208 496 176
WIRE 496 208 432 208
WIRE 528 208 512 208
WIRE 144 240 144 192
WIRE 304 240 144 240
WIRE 512 240 512 208
WIRE 512 240 304 240
WIRE 144 256 144 240
WIRE -384 288 -384 240
WIRE -176 288 -176 240
WIRE 784 288 784 256
WIRE 16 352 16 160
WIRE 144 352 144 336
WIRE 144 352 16 352
WIRE 144 384 144 352
FLAG 560 224 0
FLAG -384 288 0
FLAG -384 128 vcc
FLAG 784 288 0
FLAG 736 160 out
FLAG 304 80 out+
FLAG 304 240 out-
FLAG 560 80 vcc
FLAG 592 80 vcc
FLAG -176 288 0
FLAG -176 128 REF
FLAG 144 384 REF
FLAG 624 224 REF
SYMBOL res 416 112 R0
WINDOW 3 11 57 Left 2
SYMATTR Value 22k
SYMATTR InstName R1
SYMBOL voltage 16 64 R0
WINDOW 0 24 96 Left 2
WINDOW 3 -113 -3 Left 2
WINDOW 123 0 0 Left 0
WINDOW 39 0 0 Left 0
SYMATTR InstName V1
SYMATTR Value SINE(0 2 50)
SYMBOL res 128 208 M180
WINDOW 0 36 76 Left 2
WINDOW 3 36 40 Left 2
SYMATTR InstName R2
SYMATTR Value 10k
SYMBOL res 128 352 M180
WINDOW 0 36 76 Left 2
WINDOW 3 36 40 Left 2
SYMATTR InstName R3
SYMATTR Value 1
SYMBOL res 128 48 M180
WINDOW 0 36 76 Left 2
WINDOW 3 36 40 Left 2
SYMATTR InstName R4
SYMATTR Value 470k
SYMBOL voltage -384 144 M0
WINDOW 0 24 96 Left 2
WINDOW 3 43 31 Left 2
WINDOW 123 0 0 Left 0
WINDOW 39 0 0 Left 0
SYMATTR InstName V2
SYMATTR Value 3.3
SYMBOL res 768 160 R0
SYMATTR InstName R5
SYMATTR Value 100k
SYMBOL Opamps\\AD8235 592 160 R0
SYMATTR InstName U1
SYMBOL voltage -176 144 M0
WINDOW 0 24 96 Left 2
WINDOW 3 43 31 Left 2
WINDOW 123 0 0 Left 0
WINDOW 39 0 0 Left 0
SYMATTR InstName V3
SYMATTR Value {2.048/2}
TEXT -336 432 Left 2 !.tran 100ms
